<configuration>
    <input>
        <net-file value="intersection.net.xml"/>
        <route-files value="routes.rou.xml"/>
    </input>
</configuration>